****DC AMPLIFIER
R1 N003 N002 1k
R2 N001 N005 1k
C1 N002 N001 1n
C2 Vo N003 6.81e-10
V1 N005 0 pulse(0 10 0)
V2 N004 0 15
V3 N007 0 -15
C3 Vo 0 0.599n
R3 Vo N006 1k
XU1 N006 N001 N004 N007 N002 LM741/NS
XU2 0 N003 N004 N007 Vo LM741/NS
.tran 0 10s 0 2ms
.include LM741.MOD
.control
run
wrdata ee18btech11005.dat V(Vo)
.endc
.end



